<?xml version="1.0" encoding="UTF-8"?>
<!DOCTYPE network SYSTEM "http://www.matsim.org/files/dtd/network_v1.dtd">
<network>

<!-- ====================================================================== -->

	<nodes>
		<node id="0" x="466.25516962305244" y="0.0" />
		<node id="1" x="100.0" y="0.0" />
		<node id="10" x="1350.0" y="-100.0" />
		<node id="100" x="1667.9856252393758" y="1.0367487887954667" />
		<node id="107" x="1472.9083357574389" y="111.45269083188983" />
		<node id="11" x="1650.0" y="-100.0" />
		<node id="110" x="1561.8898582215895" y="90.02709843964881" />
		<node id="111" x="243.599686262637" y="-192.82505042651206" />
		<node id="112" x="1669.2216542962742" y="0.0" />
		<node id="12" x="1700.0" y="-100.0" />
		<node id="120" x="1644.2352169248502" y="-107.86981955967701" />
		<node id="124" x="417.4975284034461" y="-22.852771424039382" />
		<node id="13" x="250.0" y="-200.0" />
		<node id="132" x="1443.7610976890828" y="-194.81267411273092" />
		<node id="133" x="1646.705431381426" y="-37.25995038470164" />
		<node id="139" x="1340.8611436478109" y="-75.08834168401623" />
		<node id="14" x="350.0" y="-200.0" />
		<node id="15" x="250.0" y="-700.0" />
		<node id="154" x="1523.5698373158482" y="-180.14072331828956" />
		<node id="156" x="762.8804157810191" y="-100.0" />
		<node id="16" x="350.0" y="-700.0" />
		<node id="167" x="1405.8109048167169" y="-744.1890951832831" />
		<node id="17" x="200.0" y="-800.0" />
		<node id="171" x="1361.3582551453478" y="14.42547693590593" />
		<node id="18" x="100.0" y="-800.0" />
		<node id="19" x="450.0" y="-800.0" />
		<node id="2" x="200.0" y="0.0" />
		<node id="20" x="450.0" y="-900.0" />
		<node id="21" x="1450.0" y="-200.0" />
		<node id="22" x="1550.0" y="-200.0" />
		<node id="23" x="1450.0" y="-700.0" />
		<node id="24" x="1550.0" y="-700.0" />
		<node id="25" x="1350.0" y="-800.0" />
		<node id="26" x="1350.0" y="-900.0" />
		<node id="27" x="1650.0" y="-800.0" />
		<node id="28" x="1650.0" y="-900.0" />
		<node id="29" x="1450.0" y="-1000.0" />
		<node id="3" x="400.0" y="0.0" />
		<node id="30" x="1550.0" y="-1000.0" />
		<node id="31" x="1750.0" y="-800.0" />
		<node id="32" x="1750.0" y="-900.0" />
		<node id="33" x="1450.0" y="-1100.0" />
		<node id="34" x="1550.0" y="-1100.0" />
		<node id="35" x="1450.0" y="100.0" />
		<node id="36" x="1550.0" y="100.0" />
		<node id="37" x="1450.0" y="200.0" />
		<node id="38" x="1550.0" y="200.0" />
		<node id="4" x="1350.0" y="0.0" />
		<node id="41" x="1372.2753645687428" y="-73.66556300278089" />
		<node id="5" x="1650.0" y="0.0" />
		<node id="50" x="1524.9771012480262" y="-216.1039110634784" />
		<node id="55" x="1605.4514157125966" y="-944.5485842874034" />
		<node id="56" x="1450.0" y="127.00433958656603" />
		<node id="6" x="1700.0" y="0.0" />
		<node id="60" x="1329.7279668464823" y="-100.0" />
		<node id="61" x="1471.501071825261" y="69.65763480369742" />
		<node id="63" x="1550.0" y="-236.51545005399095" />
		<node id="7" x="100.0" y="-100.0" />
		<node id="72" x="160.79639415149688" y="-100.0" />
		<node id="74" x="350.0" y="-226.89662232346274" />
		<node id="77" x="397.18325074791596" y="-107.14871932043206" />
		<node id="78" x="768.0946060164243" y="0.0" />
		<node id="8" x="200.0" y="-100.0" />
		<node id="81" x="452.60271052711926" y="-25.593648363275815" />
		<node id="9" x="400.0" y="-100.0" />
		<node id="90" x="1669.2216542962742" y="-37.25995038470164" />
	</nodes>

<!-- ====================================================================== -->

	<links capperiod="01:00:00" effectivecellsize="7.5" effectivelanewidth="3.75">
		<link id="0" from="110" to="36" length="15.518617659506798" freespeed="13.88888931274414" capacity="2000.0" permlanes="1.0" oneway="1" modes="car" />
		<link id="10" from="11" to="12" length="50.0" freespeed="13.88888931274414" capacity="3000.0" permlanes="2.0" oneway="1" modes="car" />
		<link id="105" from="139" to="41" length="31.446423886427645" freespeed="13.88888931274414" capacity="600.0" permlanes="1.0" oneway="1" modes="car" />
		<link id="11" from="74" to="14" length="26.896622323462726" freespeed="13.88888931274414" capacity="3000.0" permlanes="1.0" oneway="1" modes="car" />
		<link id="113" from="0" to="81" length="29.007317626922013" freespeed="13.88888931274414" capacity="600.0" permlanes="1.0" oneway="1" modes="car" />
		<link id="121" from="112" to="5" length="19.22165429627421" freespeed="13.88888931274414" capacity="3000.0" permlanes="2.0" oneway="1" modes="car" />
		<link id="122" from="60" to="139" length="27.286229965716494" freespeed="13.88888931274414" capacity="600.0" permlanes="1.0" oneway="1" modes="car" />
		<link id="125" from="56" to="35" length="27.00433958656604" freespeed="13.88888931274414" capacity="3000.0" permlanes="1.0" oneway="1" modes="car" />
		<link id="127" from="16" to="74" length="473.10337767653726" freespeed="13.88888931274414" capacity="3000.0" permlanes="1.0" oneway="1" modes="car" />
		<link id="13" from="50" to="154" length="35.990710809464545" freespeed="13.88888931274414" capacity="600.0" permlanes="1.0" oneway="1" modes="car" />
		<link id="130" from="30" to="55" length="78.42014415354272" freespeed="13.88888931274414" capacity="3000.0" permlanes="1.0" oneway="1" modes="car" />
		<link id="134" from="0" to="3" length="66.25516962305247" freespeed="13.88888931274414" capacity="3000.0" permlanes="2.0" oneway="1" modes="car" />
		<link id="14" from="14" to="2" length="250.0" freespeed="13.88888931274414" capacity="3000.0" permlanes="1.0" oneway="1" modes="car" />
		<link id="141" from="24" to="63" length="463.48454994600905" freespeed="13.88888931274414" capacity="3000.0" permlanes="1.0" oneway="1" modes="car" />
		<link id="15" from="13" to="15" length="500.0" freespeed="13.88888931274414" capacity="3000.0" permlanes="1.0" oneway="1" modes="car" />
		<link id="150" from="77" to="9" length="7.6836361360644005" freespeed="13.88888931274414" capacity="600.0" permlanes="1.0" oneway="1" modes="car" />
		<link id="155" from="63" to="120" length="159.4677846906801" freespeed="13.88888931274414" capacity="600.0" permlanes="1.0" oneway="1" modes="car" />
		<link id="159" from="9" to="156" length="362.8804157810191" freespeed="13.88888931274414" capacity="3000.0" permlanes="2.0" oneway="1" modes="car" />
		<link id="160" from="61" to="11" length="246.26323397274592" freespeed="13.88888931274414" capacity="600.0" permlanes="1.0" oneway="1" modes="car" />
		<link id="162" from="132" to="21" length="8.113707654697674" freespeed="13.88888931274414" capacity="600.0" permlanes="1.0" oneway="1" modes="car" />
		<link id="163" from="124" to="13" length="243.7961497099716" freespeed="13.88888931274414" capacity="600.0" permlanes="1.0" oneway="1" modes="car" />
		<link id="166" from="63" to="22" length="36.51545005399093" freespeed="13.88888931274414" capacity="3000.0" permlanes="1.0" oneway="1" modes="car" />
		<link id="168" from="74" to="77" length="128.70827255760972" freespeed="13.88888931274414" capacity="600.0" permlanes="1.0" oneway="1" modes="car" />
		<link id="169" from="63" to="50" length="32.29204833875901" freespeed="13.88888931274414" capacity="600.0" permlanes="1.0" oneway="1" modes="car" />
		<link id="17" from="18" to="17" length="100.0" freespeed="13.88888931274414" capacity="3000.0" permlanes="1.0" oneway="1" modes="car" />
		<link id="178" from="37" to="56" length="72.99566041343397" freespeed="13.88888931274414" capacity="3000.0" permlanes="1.0" oneway="1" modes="car" />
		<link id="18" from="17" to="16" length="180.27756377319946" freespeed="13.88888931274414" capacity="3000.0" permlanes="1.0" oneway="1" modes="car" />
		<link id="186" from="23" to="167" length="62.49281771719457" freespeed="13.88888931274414" capacity="3000.0" permlanes="1.0" oneway="1" modes="car" />
		<link id="188" from="111" to="13" length="9.614775989006327" freespeed="13.88888931274414" capacity="600.0" permlanes="1.0" oneway="1" modes="car" />
		<link id="189" from="55" to="28" length="63.00121208376679" freespeed="13.88888931274414" capacity="3000.0" permlanes="1.0" oneway="1" modes="car" />
		<link id="19" from="17" to="20" length="269.2582403567252" freespeed="13.88888931274414" capacity="3000.0" permlanes="1.0" oneway="1" modes="car" />
		<link id="2" from="5" to="4" length="300.0" freespeed="13.88888931274414" capacity="3000.0" permlanes="2.0" oneway="1" modes="car" />
		<link id="20" from="21" to="23" length="500.0" freespeed="13.88888931274414" capacity="3000.0" permlanes="1.0" oneway="1" modes="car" />
		<link id="207" from="72" to="111" length="124.39001234475097" freespeed="13.88888931274414" capacity="600.0" permlanes="1.0" oneway="1" modes="car" />
		<link id="211" from="120" to="11" length="9.755346421599267" freespeed="13.88888931274414" capacity="600.0" permlanes="1.0" oneway="1" modes="car" />
		<link id="219" from="56" to="171" length="143.2876800237671" freespeed="13.88888931274414" capacity="600.0" permlanes="1.0" oneway="1" modes="car" />
		<link id="22" from="20" to="26" length="900.0" freespeed="13.88888931274414" capacity="3000.0" permlanes="1.0" oneway="1" modes="car" />
		<link id="23" from="25" to="19" length="900.0" freespeed="13.88888931274414" capacity="3000.0" permlanes="1.0" oneway="1" modes="car" />
		<link id="24" from="19" to="16" length="141.4213562373095" freespeed="13.88888931274414" capacity="3000.0" permlanes="1.0" oneway="1" modes="car" />
		<link id="25" from="15" to="20" length="282.842712474619" freespeed="13.88888931274414" capacity="3000.0" permlanes="1.0" oneway="1" modes="car" />
		<link id="26" from="24" to="23" length="100.0" freespeed="13.88888931274414" capacity="3000.0" permlanes="1.0" oneway="1" modes="car" />
		<link id="27" from="41" to="36" length="248.48696909948043" freespeed="13.88888931274414" capacity="600.0" permlanes="1.0" oneway="1" modes="car" />
		<link id="28" from="25" to="26" length="100.0" freespeed="13.88888931274414" capacity="3000.0" permlanes="1.0" oneway="1" modes="car" />
		<link id="29" from="26" to="29" length="141.4213562373095" freespeed="13.88888931274414" capacity="3000.0" permlanes="1.0" oneway="1" modes="car" />
		<link id="3" from="156" to="60" length="566.8475510654632" freespeed="13.88888931274414" capacity="600.0" permlanes="1.0" oneway="1" modes="car" />
		<link id="30" from="29" to="30" length="100.0" freespeed="13.88888931274414" capacity="3000.0" permlanes="1.0" oneway="1" modes="car" />
		<link id="32" from="28" to="27" length="100.0" freespeed="13.88888931274414" capacity="3000.0" permlanes="1.0" oneway="1" modes="car" />
		<link id="33" from="27" to="24" length="141.4213562373095" freespeed="13.88888931274414" capacity="3000.0" permlanes="1.0" oneway="1" modes="car" />
		<link id="34" from="29" to="33" length="100.0" freespeed="13.88888931274414" capacity="3000.0" permlanes="1.0" oneway="1" modes="car" />
		<link id="35" from="34" to="30" length="100.0" freespeed="13.88888931274414" capacity="3000.0" permlanes="1.0" oneway="1" modes="car" />
		<link id="36" from="28" to="32" length="100.0" freespeed="13.88888931274414" capacity="3000.0" permlanes="1.0" oneway="1" modes="car" />
		<link id="37" from="31" to="27" length="100.0" freespeed="13.88888931274414" capacity="3000.0" permlanes="1.0" oneway="1" modes="car" />
		<link id="38" from="36" to="38" length="100.0" freespeed="13.88888931274414" capacity="3000.0" permlanes="1.0" oneway="1" modes="car" />
		<link id="4" from="3" to="2" length="200.0" freespeed="13.88888931274414" capacity="3000.0" permlanes="2.0" oneway="1" modes="car" />
		<link id="40" from="22" to="36" length="300.0" freespeed="13.88888931274414" capacity="3000.0" permlanes="1.0" oneway="1" modes="car" />
		<link id="41" from="35" to="21" length="300.0" freespeed="13.88888931274414" capacity="3000.0" permlanes="1.0" oneway="1" modes="car" />
		<link id="49" from="56" to="107" length="27.68836626029742" freespeed="13.88888931274414" capacity="600.0" permlanes="1.0" oneway="1" modes="car" />
		<link id="5" from="2" to="1" length="100.0" freespeed="13.88888931274414" capacity="3000.0" permlanes="2.0" oneway="1" modes="car" />
		<link id="50" from="7" to="72" length="60.796394151496884" freespeed="13.88888931274414" capacity="3000.0" permlanes="2.0" oneway="1" modes="car" />
		<link id="55" from="6" to="112" length="30.77834570372579" freespeed="13.88888931274414" capacity="3000.0" permlanes="2.0" oneway="1" modes="car" />
		<link id="59" from="72" to="8" length="39.203605848503116" freespeed="13.88888931274414" capacity="3000.0" permlanes="2.0" oneway="1" modes="car" />
		<link id="64" from="60" to="10" length="20.272033153517622" freespeed="13.88888931274414" capacity="3000.0" permlanes="2.0" oneway="1" modes="car" />
		<link id="65" from="78" to="0" length="301.83943639337184" freespeed="13.88888931274414" capacity="3000.0" permlanes="2.0" oneway="1" modes="car" />
		<link id="7" from="8" to="9" length="200.0" freespeed="13.88888931274414" capacity="3000.0" permlanes="2.0" oneway="1" modes="car" />
		<link id="73" from="100" to="90" length="38.3166404505253" freespeed="13.88888931274414" capacity="600.0" permlanes="1.0" oneway="1" modes="car" />
		<link id="74" from="154" to="4" length="250.15428963638934" freespeed="13.88888931274414" capacity="600.0" permlanes="1.0" oneway="1" modes="car" />
		<link id="77" from="112" to="110" length="140.08923192765354" freespeed="13.88888931274414" capacity="2000.0" permlanes="1.0" oneway="1" modes="car" />
		<link id="82" from="167" to="25" length="78.92853852011494" freespeed="13.88888931274414" capacity="3000.0" permlanes="1.0" oneway="1" modes="car" />
		<link id="84" from="171" to="4" length="18.36040154177386" freespeed="13.88888931274414" capacity="600.0" permlanes="1.0" oneway="1" modes="car" />
		<link id="88" from="4" to="78" length="581.9053939835757" freespeed="13.88888931274414" capacity="3000.0" permlanes="2.0" oneway="1" modes="car" />
		<link id="9" from="10" to="11" length="300.0" freespeed="13.88888931274414" capacity="3000.0" permlanes="2.0" oneway="1" modes="car" />
		<link id="92" from="90" to="133" length="22.516222914848186" freespeed="13.88888931274414" capacity="600.0" permlanes="1.0" oneway="1" modes="car" />
		<link id="93" from="133" to="21" length="255.2985516679299" freespeed="13.88888931274414" capacity="600.0" permlanes="1.0" oneway="1" modes="car" />
		<link id="94" from="107" to="61" length="41.81874101613475" freespeed="13.88888931274414" capacity="600.0" permlanes="1.0" oneway="1" modes="car" />
		<link id="97" from="81" to="124" length="35.212018095137616" freespeed="13.88888931274414" capacity="600.0" permlanes="1.0" oneway="1" modes="car" />
		<link id="98" from="60" to="132" length="148.30036447080144" freespeed="13.88888931274414" capacity="600.0" permlanes="1.0" oneway="1" modes="car" />
	</links>

<!-- ====================================================================== -->

</network>
