<?xml version="1.0" encoding="UTF-8"?>
<!DOCTYPE network SYSTEM "http://www.matsim.org/files/dtd/network_v1.dtd">
<network>

<!-- ====================================================================== -->

	<nodes>
		<node id="0" x="466.25516962305244" y="0.0" />
		<node id="1" x="100.0" y="0.0" />
		<node id="10" x="1350.0" y="-100.0" />
		<node id="100" x="1667.9856252393758" y="1.0367487887954667" />
		<node id="1007" x="4200.101662227602" y="4307.499777364215" />
		<node id="101" x="1442.0851453701775" y="1303.6788850479197" />
		<node id="1011" x="4115.184085386962" y="6157.538115188427" />
		<node id="102" x="1539.634582513087" y="-1274.0522704906014" />
		<node id="103" x="3430.006640011885" y="1250.5584526388338" />
		<node id="104" x="5389.322439930833" y="-364.52838024615266" />
		<node id="106" x="-774.9491730896023" y="7.302297886407871" />
		<node id="1064" x="6574.40422854015" y="4375.57655545165" />
		<node id="1065" x="4019.2955651475213" y="2453.378481338321" />
		<node id="1066" x="-748.5323988342437" y="-199.58117829725285" />
		<node id="1067" x="7748.57021360334" y="5145.887187938805" />
		<node id="107" x="1472.9083357574389" y="111.45269083188983" />
		<node id="1077" x="3672.168274310052" y="1924.88251541107" />
		<node id="108" x="3230.8967269471077" y="173.73366204148988" />
		<node id="1083" x="-1799.908623817645" y="232.75107628230023" />
		<node id="11" x="1650.0" y="-100.0" />
		<node id="110" x="1561.8898582215895" y="90.02709843964881" />
		<node id="111" x="243.599686262637" y="-192.82505042651206" />
		<node id="1115" x="6055.606310193781" y="4145.484403685004" />
		<node id="112" x="1669.2216542962742" y="0.0" />
		<node id="1120" x="-783.3270899381232" y="-105.43994521850624" />
		<node id="115" x="-859.6460960318027" y="5707.459127000759" />
		<node id="12" x="1700.0" y="-100.0" />
		<node id="120" x="1644.2352169248502" y="-107.86981955967701" />
		<node id="124" x="417.4975284034461" y="-22.852771424039382" />
		<node id="126" x="6731.398596620327" y="1354.95648827572" />
		<node id="128" x="3608.6889592281923" y="25.695446254035232" />
		<node id="129" x="-139.31171316704626" y="-1532.3201779379363" />
		<node id="13" x="250.0" y="-200.0" />
		<node id="130" x="4850.793512906026" y="-67.49437050438974" />
		<node id="132" x="1443.7610976890828" y="-194.81267411273092" />
		<node id="133" x="1646.705431381426" y="-37.25995038470164" />
		<node id="134" x="-124.93933149792042" y="-1020.1266173063624" />
		<node id="135" x="1964.1082340243806" y="6300.410630988744" />
		<node id="136" x="3187.9553268631566" y="-1181.5079656896473" />
		<node id="137" x="1517.6306480947528" y="1043.4003850094539" />
		<node id="138" x="3436.601953507513" y="-1618.9558487867669" />
		<node id="139" x="1340.8611436478109" y="-75.08834168401623" />
		<node id="14" x="350.0" y="-200.0" />
		<node id="141" x="3849.4787540009165" y="3526.250480603232" />
		<node id="142" x="3009.428160764573" y="-1253.5168304761307" />
		<node id="143" x="3357.7615227484816" y="1022.4217468133454" />
		<node id="144" x="3070.6422437273477" y="-13.319443217527123" />
		<node id="145" x="1564.610174936438" y="-1755.7017088474447" />
		<node id="148" x="4038.483097934173" y="4422.579290809189" />
		<node id="149" x="7476.6789364412925" y="381.02465457212315" />
		<node id="15" x="250.0" y="-700.0" />
		<node id="150" x="3087.0700861646446" y="-84.77983653445585" />
		<node id="154" x="1523.5698373158482" y="-180.14072331828956" />
		<node id="156" x="762.8804157810191" y="-100.0" />
		<node id="157" x="1442.2672611177359" y="1012.8796265905186" />
		<node id="158" x="6108.705263699045" y="1204.6960060871068" />
		<node id="159" x="3121.649559757995" y="-1164.6830471089888" />
		<node id="16" x="350.0" y="-700.0" />
		<node id="160" x="4360.677212630104" y="5505.535781813278" />
		<node id="161" x="2873.3703015486226" y="-1072.2447632470664" />
		<node id="162" x="5684.127563169993" y="-61.556691084184195" />
		<node id="163" x="-588.6849756178779" y="-1.7196143049632155" />
		<node id="165" x="3410.1441723133935" y="1229.3142709900492" />
		<node id="166" x="1610.9934180083753" y="-1657.923251436657" />
		<node id="167" x="1405.8109048167169" y="-744.1890951832831" />
		<node id="168" x="3470.053121013105" y="-1444.2574405391451" />
		<node id="169" x="3218.5360192383587" y="1628.6044739063996" />
		<node id="17" x="200.0" y="-800.0" />
		<node id="170" x="-342.2704565030117" y="18.440603628382632" />
		<node id="171" x="1361.3582551453478" y="14.42547693590593" />
		<node id="174" x="6225.570609005592" y="-53.41507412789974" />
		<node id="175" x="-1629.0866624054602" y="-315.7469169204294" />
		<node id="176" x="5217.156254586744" y="-1326.2157350095833" />
		<node id="178" x="-1818.4806828436585" y="-224.9527989481718" />
		<node id="179" x="3225.130145319772" y="1022.4217468133454" />
		<node id="18" x="100.0" y="-800.0" />
		<node id="181" x="5396.697818657331" y="-1202.9529712377864" />
		<node id="182" x="1546.6729519802068" y="1011.0623615009606" />
		<node id="183" x="-2475.4876240085764" y="-257.2781014213706" />
		<node id="185" x="-2515.889110149532" y="-129.85531610286148" />
		<node id="187" x="-2015.0628386413246" y="-30.993577994081193" />
		<node id="188" x="-1616.9070681305982" y="181.99070705584847" />
		<node id="189" x="-809.6301781445909" y="4222.564032611959" />
		<node id="19" x="450.0" y="-800.0" />
		<node id="191" x="3373.6114747576094" y="-1262.2675748768079" />
		<node id="192" x="1375.509260873924" y="-1618.0875836026323" />
		<node id="194" x="3302.246868391743" y="1092.6556095600893" />
		<node id="195" x="3068.9020039334373" y="-1256.9548222458002" />
		<node id="196" x="5603.913778601756" y="-147.04366912516957" />
		<node id="198" x="2965.818049691956" y="24.27593707931942" />
		<node id="199" x="3427.7529948635383" y="142.82594458228664" />
		<node id="2" x="200.0" y="0.0" />
		<node id="20" x="450.0" y="-900.0" />
		<node id="200" x="3004.310687633113" y="-85.75826097835215" />
		<node id="201" x="1357.669552000102" y="-1690.5160705735861" />
		<node id="202" x="5097.325455580732" y="63.95677605094852" />
		<node id="203" x="3540.472977621" y="25.692278121879326" />
		<node id="205" x="5234.439486674377" y="-1173.0092358452282" />
		<node id="208" x="3344.829704987108" y="-1799.7414906663255" />
		<node id="209" x="8044.9551955547795" y="901.0853424721017" />
		<node id="21" x="1450.0" y="-200.0" />
		<node id="212" x="1670.3978123946654" y="1218.057545280464" />
		<node id="215" x="-702.2027202206996" y="1956.979482392892" />
		<node id="216" x="5219.688729221381" y="-357.042446398013" />
		<node id="217" x="5094.3072348559745" y="-282.97061981313345" />
		<node id="22" x="1550.0" y="-200.0" />
		<node id="223" x="165.7741557615011" y="3806.6635235483027" />
		<node id="227" x="3136.353613476535" y="-10.937430106963006" />
		<node id="23" x="1450.0" y="-700.0" />
		<node id="230" x="1545.4795073961836" y="1052.2865908897238" />
		<node id="231" x="2.3704363878600816" y="-826.2994520942998" />
		<node id="232" x="3488.3788085614688" y="-84.77983653445585" />
		<node id="234" x="4205.757481870403" y="3343.4092623214883" />
		<node id="235" x="6107.793286476839" y="1306.5637343993094" />
		<node id="237" x="1460.2021906519665" y="1286.0621234241662" />
		<node id="239" x="-73.40918735367609" y="-909.3682371851837" />
		<node id="24" x="1550.0" y="-700.0" />
		<node id="241" x="1520.649935338331" y="3286.8763798309064" />
		<node id="242" x="5696.926254868289" y="57.514479283981245" />
		<node id="25" x="1350.0" y="-800.0" />
		<node id="250" x="1987.429469243341" y="3145.961187984725" />
		<node id="254" x="1962.5238993314476" y="3542.5618970195856" />
		<node id="257" x="-415.9659448497305" y="-6195.3584068838945" />
		<node id="259" x="3060.071146345151" y="82.89709197463628" />
		<node id="26" x="1350.0" y="-900.0" />
		<node id="262" x="5579.174377336123" y="61.136205021893375" />
		<node id="268" x="-373.8365386801581" y="1179.4160485985994" />
		<node id="27" x="1650.0" y="-800.0" />
		<node id="272" x="1272.3430108242367" y="1198.4630723057492" />
		<node id="273" x="5025.623877382912" y="-67.49437050438974" />
		<node id="279" x="7015.11847299893" y="4632.611259796263" />
		<node id="28" x="1650.0" y="-900.0" />
		<node id="280" x="2607.1654741341654" y="3161.5115485753076" />
		<node id="281" x="3221.372160878928" y="-1554.6862147861534" />
		<node id="283" x="1536.0666407383226" y="-1556.5233696773216" />
		<node id="29" x="1450.0" y="-1000.0" />
		<node id="290" x="3035.7918539989787" y="-1211.796137620833" />
		<node id="294" x="6213.274139465031" y="74.16047319286031" />
		<node id="296" x="-847.7105442743448" y="170.25542244098506" />
		<node id="299" x="-2004.961198319461" y="-142.1115000819076" />
		<node id="3" x="400.0" y="0.0" />
		<node id="30" x="1550.0" y="-1000.0" />
		<node id="301" x="1275.9942740618262" y="1168.6839436037094" />
		<node id="304" x="-936.2766232617405" y="-6755.406871004628" />
		<node id="305" x="-3006.9058259676053" y="-448.5847520376267" />
		<node id="31" x="1750.0" y="-800.0" />
		<node id="310" x="2982.5819207500876" y="-1207.6243528669845" />
		<node id="314" x="3673.05680843342" y="-1346.6358668514165" />
		<node id="315" x="1696.5567374243874" y="1127.8940871932064" />
		<node id="316" x="3183.1790023300014" y="1063.3294490640114" />
		<node id="317" x="-176.1390344777867" y="1557.5847458423887" />
		<node id="32" x="1750.0" y="-900.0" />
		<node id="321" x="-1579.0123262738405" y="-6653.808240485345" />
		<node id="323" x="-871.7760597680417" y="-373.7417338508401" />
		<node id="325" x="1576.292465284265" y="1291.210244386066" />
		<node id="329" x="-152.2199960448736" y="-1229.3368908685884" />
		<node id="33" x="1450.0" y="-1100.0" />
		<node id="330" x="1443.3001545944478" y="-1284.9165435362445" />
		<node id="331" x="3396.8184932444165" y="-1551.656174464133" />
		<node id="332" x="1751.0337404506258" y="1168.6839436037094" />
		<node id="337" x="-3007.0417663651183" y="-835.3373965939672" />
		<node id="34" x="1550.0" y="-1100.0" />
		<node id="341" x="3111.9165645265657" y="1181.1250697832681" />
		<node id="342" x="3138.6628424116648" y="1216.9924559067067" />
		<node id="343" x="-1784.8378799516984" y="2.386275167177814" />
		<node id="346" x="1031.1903509276365" y="1171.960612518013" />
		<node id="347" x="-787.7820160541868" y="3615.2560997551595" />
		<node id="35" x="1450.0" y="100.0" />
		<node id="352" x="3349.7697010971133" y="1106.9460317898038" />
		<node id="353" x="-366.2327885185284" y="1372.3592614780837" />
		<node id="354" x="-159.79335262393033" y="-1875.3329725432638" />
		<node id="355" x="6861.822656088994" y="135.1777839284971" />
		<node id="36" x="1550.0" y="100.0" />
		<node id="363" x="4199.885545580664" y="3186.463775986139" />
		<node id="365" x="-585.2503839781914" y="-98.4315416830126" />
		<node id="37" x="1450.0" y="200.0" />
		<node id="370" x="1540.5973336216994" y="1301.6606299725806" />
		<node id="371" x="6351.179655403139" y="4387.953323145565" />
		<node id="372" x="-1777.197195263969" y="-125.57480006575622" />
		<node id="373" x="1392.9926219919073" y="1055.5198654035844" />
		<node id="374" x="-872.4026721996597" y="75.01884630320455" />
		<node id="375" x="3437.6877087708435" y="1131.5269136909496" />
		<node id="376" x="-144.9563280742932" y="-2203.6552149865497" />
		<node id="38" x="1550.0" y="200.0" />
		<node id="382" x="-738.9060521688308" y="77.28792976145081" />
		<node id="384" x="-3172.481230138816" y="-819.4699138526258" />
		<node id="386" x="3063.646048683613" y="1179.402699618543" />
		<node id="39" x="4131.620011269702" y="5568.096976136506" />
		<node id="391" x="2119.9307060416468" y="6163.439631669974" />
		<node id="397" x="-1617.039401638986" y="-482.0456260052109" />
		<node id="398" x="4010.391439617668" y="2679.5447261954973" />
		<node id="399" x="1459.063474159898" y="1297.015029411913" />
		<node id="4" x="1350.0" y="0.0" />
		<node id="40" x="5387.336560267517" y="-252.88468955686585" />
		<node id="401" x="-776.5162653035488" y="167.95113469048374" />
		<node id="402" x="3694.8254748717995" y="3422.927471943971" />
		<node id="404" x="3443.7959177254234" y="1179.0584799460883" />
		<node id="41" x="1372.2753645687428" y="-73.66556300278089" />
		<node id="410" x="3368.378224589069" y="1321.3359491859646" />
		<node id="415" x="-1734.9958404103027" y="6202.601936305282" />
		<node id="418" x="-1602.5826887192165" y="-259.4988241417533" />
		<node id="42" x="5574.268487961136" y="10.601053089621644" />
		<node id="421" x="1389.7810279729815" y="-1762.9445575445402" />
		<node id="422" x="7476.6789364412925" y="901.0853424721017" />
		<node id="425" x="3984.581214956889" y="3555.9809969782273" />
		<node id="426" x="1518.1894441594413" y="1024.1674537903666" />
		<node id="427" x="1464.7078052430343" y="-1788.2945279843739" />
		<node id="429" x="1443.3001545944478" y="-1560.1447940258693" />
		<node id="436" x="3823.64533258733" y="2978.078708294821" />
		<node id="437" x="1265.9801920701589" y="1240.1855819581651" />
		<node id="439" x="-153.72678496469325" y="3784.038627156566" />
		<node id="444" x="-198.9502849626756" y="191.54679865564032" />
		<node id="445" x="210.35568237445864" y="3595.4978238920903" />
		<node id="446" x="5226.251721658975" y="3393.0194329747796" />
		<node id="448" x="3673.8163894171585" y="3358.40998555268" />
		<node id="450" x="1440.3873124912056" y="1329.8217033122537" />
		<node id="451" x="-2887.7132854279353" y="-549.0604123180146" />
		<node id="452" x="3210.482568558084" y="1352.3544923980712" />
		<node id="456" x="-834.6381370881973" y="5136.345629158914" />
		<node id="46" x="5665.286346851686" y="10.601053089621644" />
		<node id="464" x="-1586.5908150178493" y="-6433.477916573513" />
		<node id="466" x="1700.3972752737845" y="3034.043418319179" />
		<node id="468" x="1685.5412015848447" y="1237.6520182551787" />
		<node id="47" x="3682.1652349769215" y="-1186.9203387661382" />
		<node id="478" x="6423.970456444178" y="938.9079379557368" />
		<node id="479" x="-282.5915367406021" y="1001.908292749474" />
		<node id="48" x="4326.928553532995" y="6133.89094500258" />
		<node id="480" x="7206.514813256192" y="135.1777839284971" />
		<node id="481" x="-301.335268957514" y="-3640.8578667520073" />
		<node id="482" x="1024.7946162152032" y="1240.1855819581651" />
		<node id="487" x="4483.69579958473" y="3192.4237311634306" />
		<node id="488" x="242.06722441184525" y="1310.6174333566487" />
		<node id="49" x="3996.3854815903924" y="3056.266179797025" />
		<node id="494" x="3845.731919728786" y="2509.4310837851503" />
		<node id="499" x="74.78472085599265" y="1549.8670173272092" />
		<node id="5" x="1650.0" y="0.0" />
		<node id="50" x="1524.9771012480262" y="-216.1039110634784" />
		<node id="502" x="3381.621086062635" y="1232.4161253112597" />
		<node id="504" x="1211.8068082800305" y="1169.6827359606223" />
		<node id="508" x="-879.963922390017" y="373.2011601507402" />
		<node id="51" x="3545.010593542969" y="-2320.6786486060682" />
		<node id="512" x="3602.9778917754466" y="3182.9303639335894" />
		<node id="514" x="6463.59707594234" y="368.2383288425388" />
		<node id="516" x="-1626.1589014328406" y="479.86602502461164" />
		<node id="518" x="3939.470111895674" y="3093.272313608923" />
		<node id="521" x="4469.994614908672" y="3331.4893519669045" />
		<node id="523" x="4007.4616802326073" y="2020.9726910342065" />
		<node id="526" x="8054.271199802539" y="617.4158763448409" />
		<node id="53" x="3935.6929968055324" y="3030.20368929629" />
		<node id="536" x="8159.849019253843" y="6102.160367468716" />
		<node id="537" x="8125.707049589624" y="5558.529888322057" />
		<node id="539" x="1947.5736351032247" y="1235.987659764612" />
		<node id="54" x="6611.864781857423" y="275.0777272755427" />
		<node id="540" x="3240.400829680341" y="1312.17047396646" />
		<node id="542" x="3095.432608075368" y="1224.6234550312938" />
		<node id="543" x="3567.9961664685543" y="1179.0584799460883" />
		<node id="545" x="1910.733711682416" y="1169.5305135358503" />
		<node id="546" x="1960.9378474110858" y="6180.329653628616" />
		<node id="55" x="1605.4514157125966" y="-944.5485842874034" />
		<node id="550" x="1372.589638679784" y="3443.9511028090055" />
		<node id="553" x="-289.283397660608" y="-3142.5256390161717" />
		<node id="554" x="1296.9204342180678" y="1252.4184570786374" />
		<node id="556" x="50.0567884696934" y="3436.0820856652326" />
		<node id="558" x="3814.1748932890164" y="1836.799854423195" />
		<node id="56" x="1450.0" y="127.00433958656603" />
		<node id="561" x="7459.049789680546" y="4887.290155439509" />
		<node id="564" x="1743.9514170326795" y="1234.386272759393" />
		<node id="57" x="2397.4458980683985" y="-888.5465008222944" />
		<node id="575" x="4001.054134266151" y="2970.9707563400752" />
		<node id="577" x="3799.981972370972" y="3829.2747277283997" />
		<node id="579" x="3650.07333857346" y="3237.6378795223204" />
		<node id="58" x="2423.549309732858" y="-758.8449590267928" />
		<node id="583" x="3373.2889577710334" y="1252.7726013470392" />
		<node id="585" x="1589.211418775388" y="3322.203291230414" />
		<node id="587" x="3205.38916029902" y="1395.78045289502" />
		<node id="588" x="242.06722441184525" y="1148.545134537882" />
		<node id="59" x="1713.6646386523207" y="1216.7512470821496" />
		<node id="590" x="7271.726842990525" y="1194.2104574702716" />
		<node id="595" x="5645.74034365403" y="3532.6886456981697" />
		<node id="6" x="1700.0" y="0.0" />
		<node id="60" x="1329.7279668464823" y="-100.0" />
		<node id="604" x="681.3645233773607" y="3425.3960759279407" />
		<node id="605" x="3311.84321757873" y="1040.058550554505" />
		<node id="608" x="4115.184085386962" y="4817.39363866472" />
		<node id="609" x="-213.38072620347702" y="-2581.2310490163245" />
		<node id="61" x="1471.501071825261" y="69.65763480369742" />
		<node id="612" x="1673.693843389522" y="3474.829298801375" />
		<node id="613" x="-492.1444486294133" y="1846.4277079020735" />
		<node id="616" x="4831.338581143157" y="3298.514140594759" />
		<node id="621" x="6582.342528656134" y="1232.033052953907" />
		<node id="622" x="-355.8644047615462" y="-4263.6142372714385" />
		<node id="623" x="1831.7106784777882" y="2999.1197043311163" />
		<node id="626" x="5217.126242937358" y="3287.979252543934" />
		<node id="63" x="1550.0" y="-236.51545005399095" />
		<node id="631" x="1850.0833322475576" y="3080.131085944532" />
		<node id="634" x="3335.780411731059" y="1346.1507837556499" />
		<node id="635" x="-272.6108559325794" y="3422.040284888773" />
		<node id="638" x="3161.5858492710695" y="1296.5211146162796" />
		<node id="639" x="7485.994940689054" y="626.8715252157497" />
		<node id="64" x="3376.684250679235" y="-2285.3304733914074" />
		<node id="640" x="-89.53312098393008" y="-81.31943215854449" />
		<node id="641" x="2129.7752595344496" y="3309.9299920364433" />
		<node id="649" x="1834.0220549124697" y="3462.922116447776" />
		<node id="655" x="4057.001762530341" y="3299.7029243546817" />
		<node id="657" x="3794.66493355009" y="3581.885946804373" />
		<node id="658" x="3849.4787540009165" y="3416.966529136706" />
		<node id="66" x="1540.5979382004878" y="1301.62974900411" />
		<node id="664" x="-764.4422080995994" y="2264.945139903027" />
		<node id="666" x="3690.588731328214" y="3181.839997664201" />
		<node id="669" x="3510.4385138062307" y="1796.762281246888" />
		<node id="67" x="-1742.3309136103194" y="-303.5190706641955" />
		<node id="674" x="-784.9086668064814" y="-237.23767152875152" />
		<node id="676" x="-274.30624105326433" y="1783.255265335892" />
		<node id="677" x="3674.763838568319" y="3358.3830380837458" />
		<node id="679" x="-415.9659448497305" y="-5483.663186500358" />
		<node id="685" x="7020.19472830095" y="1354.95648827572" />
		<node id="686" x="1794.7633604020336" y="3060.7692912268285" />
		<node id="687" x="4806.371063083883" y="3188.282833110726" />
		<node id="689" x="1808.1164570544015" y="3130.471752210562" />
		<node id="7" x="100.0" y="-100.0" />
		<node id="704" x="-938.2320948577562" y="-6548.125941074064" />
		<node id="706" x="2055.441321666449" y="3330.887821314204" />
		<node id="707" x="4009.240012699294" y="3975.441516107495" />
		<node id="710" x="-1727.4720173387" y="6315.466071574148" />
		<node id="72" x="160.79639415149688" y="-100.0" />
		<node id="722" x="-1046.5357272097735" y="6188.3545551471525" />
		<node id="724" x="-235.4595837551151" y="3633.2059845449853" />
		<node id="726" x="-1055.9653494395475" y="6334.801458481052" />
		<node id="728" x="7779.881386805786" y="4955.628450335766" />
		<node id="73" x="2949.9117255625224" y="-962.9902078136577" />
		<node id="739" x="4186.1843609046055" y="3295.7296209031542" />
		<node id="74" x="350.0" y="-226.89662232346274" />
		<node id="740" x="-395.93209815366936" y="-4812.636264424453" />
		<node id="749" x="-869.5230292636427" y="-159.57115423878554" />
		<node id="75" x="3441.693373504909" y="-1244.5352076422516" />
		<node id="751" x="1642.4750001775549" y="3104.5432651143897" />
		<node id="754" x="2005.8853630877813" y="3483.879975041856" />
		<node id="76" x="1813.213550050077" y="3583.7043076454565" />
		<node id="767" x="3778.673238544275" y="2032.9839629870985" />
		<node id="77" x="397.18325074791596" y="-107.14871932043206" />
		<node id="771" x="1586.7245467765542" y="3270.110116408698" />
		<node id="774" x="-12.55195069032834" y="3859.454948462356" />
		<node id="778" x="2019.8584182562345" y="3186.620956891902" />
		<node id="78" x="768.0946060164243" y="0.0" />
		<node id="780" x="3336.8748683874956" y="1704.6758629413825" />
		<node id="785" x="3727.945112646664" y="3230.242048671639" />
		<node id="786" x="1353.7341705098004" y="3338.7179198537624" />
		<node id="795" x="2069.6070420131023" y="3272.3098848244554" />
		<node id="8" x="200.0" y="-100.0" />
		<node id="80" x="3238.1514159676635" y="1354.40841362771" />
		<node id="801" x="-743.7876682291693" y="-148.98026551742652" />
		<node id="802" x="-94.28474948075018" y="3339.082331452404" />
		<node id="803" x="1621.8266841031102" y="3425.1980530641267" />
		<node id="807" x="4327.2597396889905" y="4720.505044291109" />
		<node id="81" x="452.60271052711926" y="-25.593648363275815" />
		<node id="823" x="3792.7072971054176" y="3524.263499667477" />
		<node id="829" x="3367.7132020072054" y="3331.7030070998376" />
		<node id="83" x="3147.6389157501408" y="1261.8197013176234" />
		<node id="834" x="2600.4896837712813" y="3280.0890780340183" />
		<node id="837" x="3616.9434780404545" y="1704.6758629413825" />
		<node id="84" x="5553.74066745258" y="3588.5476241058564" />
		<node id="841" x="1964.4199683872457" y="3301.2250812292627" />
		<node id="85" x="-69.6865322149713" y="940.1664646280392" />
		<node id="851" x="3767.6215004782284" y="3008.8798334320527" />
		<node id="858" x="1853.5742758299023" y="3538.334271353904" />
		<node id="87" x="6634.6061508093735" y="4523.571532335371" />
		<node id="875" x="4054.797219892262" y="2257.194372774417" />
		<node id="878" x="-1819.8975299327112" y="180.12474460569695" />
		<node id="880" x="8003.3481866553975" y="6117.5851282391895" />
		<node id="883" x="3828.3139852630884" y="2693.760630104989" />
		<node id="884" x="-1721.4906075200786" y="267.07259694095455" />
		<node id="892" x="3384.210408047151" y="1572.55187145957" />
		<node id="9" x="400.0" y="-100.0" />
		<node id="90" x="1669.2216542962742" y="-37.25995038470164" />
		<node id="901" x="4157.521219084423" y="3131.609915087231" />
		<node id="905" x="179.57265507209172" y="3491.6482522627907" />
		<node id="909" x="1654.208177821052" y="3304.3386317865047" />
		<node id="91" x="3509.4544750938476" y="-1813.0255330727905" />
		<node id="910" x="3982.6239028603095" y="3639.420369460311" />
		<node id="92" x="1230.7048799503566" y="1198.6823177271876" />
		<node id="921" x="3868.6451971458564" y="4066.6903011929353" />
		<node id="923" x="4131.379622200372" y="3345.395914047252" />
		<node id="930" x="3881.2335744735274" y="2341.2732764446614" />
		<node id="932" x="7968.605735784662" y="5612.145473808748" />
		<node id="94" x="693.3222206814964" y="3527.623134716879" />
		<node id="942" x="7253.043221341546" y="4602.159326890758" />
		<node id="946" x="4039.3859536611226" y="3516.2479624629486" />
		<node id="95" x="6145.790127823479" y="4067.423986294464" />
		<node id="954" x="5810.098902088816" y="3876.141083129011" />
		<node id="956" x="3869.3996895586138" y="2153.0966825160194" />
		<node id="97" x="3375.061267630487" y="197.14574713864454" />
		<node id="976" x="2992.2288292048597" y="3289.822480546727" />
		<node id="98" x="-1810.6718809565268" y="95.46499364768295" />
		<node id="982" x="-839.4730687648378" y="-231.35384446132986" />
		<node id="99" x="3491.9897724024113" y="-1387.4761305350826" />
		<node id="998" x="2120.772007773302" y="6272.9947473048405" />
	</nodes>

<!-- ====================================================================== -->

	<links capperiod="01:00:00" effectivecellsize="7.5" effectivelanewidth="3.75">
		<link id="0" from="110" to="36" length="15.518617659506798" freespeed="13.88888931274414" capacity="2000.0" permlanes="1.0" oneway="1" modes="car" />
		<link id="10" from="11" to="12" length="50.0" freespeed="13.88888931274414" capacity="3000.0" permlanes="2.0" oneway="1" modes="car" />
		<link id="1000" from="537" to="536" length="544.7015439208693" freespeed="8.3333" capacity="600.0" permlanes="1.0" oneway="1" modes="car" />
		<link id="1007" from="1067" to="561" length="388.19389625015464" freespeed="8.3333" capacity="600.0" permlanes="1.0" oneway="1" modes="car" />
		<link id="101" from="724" to="635" length="214.40888446074646" freespeed="8.3333" capacity="600.0" permlanes="1.0" oneway="1" modes="car" />
		<link id="1017" from="84" to="446" length="381.41877660125454" freespeed="8.3333" capacity="600.0" permlanes="1.0" oneway="1" modes="car" />
		<link id="102" from="67" to="178" length="109.41410514941332" freespeed="8.3333" capacity="600.0" permlanes="1.0" oneway="1" modes="car" />
		<link id="1022" from="223" to="774" length="185.9761672546386" freespeed="8.3333" capacity="600.0" permlanes="1.0" oneway="1" modes="car" />
		<link id="103" from="365" to="640" length="496.01252919951435" freespeed="8.3333" capacity="600.0" permlanes="1.0" oneway="1" modes="car" />
		<link id="1035" from="241" to="585" length="77.12760647212181" freespeed="8.3333" capacity="600.0" permlanes="1.0" oneway="1" modes="car" />
		<link id="1037" from="930" to="956" length="188.54832625818887" freespeed="8.3333" capacity="600.0" permlanes="1.0" oneway="1" modes="car" />
		<link id="1038" from="512" to="851" length="239.58527720738837" freespeed="8.3333" capacity="600.0" permlanes="1.0" oneway="1" modes="car" />
		<link id="104" from="399" to="237" length="11.011940102712538" freespeed="8.3333" capacity="600.0" permlanes="1.0" oneway="1" modes="car" />
		<link id="105" from="139" to="41" length="31.446423886427645" freespeed="13.88888931274414" capacity="600.0" permlanes="1.0" oneway="1" modes="car" />
		<link id="1052" from="942" to="728" length="634.4279894666594" freespeed="8.3333" capacity="600.0" permlanes="1.0" oneway="1" modes="car" />
		<link id="1055" from="579" to="785" length="78.2221932144577" freespeed="8.3333" capacity="600.0" permlanes="1.0" oneway="1" modes="car" />
		<link id="106" from="199" to="97" length="75.67733523693876" freespeed="8.3333" capacity="600.0" permlanes="1.0" oneway="1" modes="car" />
		<link id="1066" from="575" to="901" length="224.24738115421172" freespeed="8.3333" capacity="600.0" permlanes="1.0" oneway="1" modes="car" />
		<link id="1069" from="512" to="666" length="87.61762440138521" freespeed="8.3333" capacity="600.0" permlanes="1.0" oneway="1" modes="car" />
		<link id="107" from="641" to="706" length="77.23189060873459" freespeed="8.3333" capacity="600.0" permlanes="1.0" oneway="1" modes="car" />
		<link id="1079" from="234" to="946" length="239.90144156565867" freespeed="8.3333" capacity="600.0" permlanes="1.0" oneway="1" modes="car" />
		<link id="1080" from="834" to="641" length="471.65935730473126" freespeed="8.3333" capacity="600.0" permlanes="1.0" oneway="1" modes="car" />
		<link id="1090" from="1064" to="942" length="715.4653275061763" freespeed="8.3333" capacity="600.0" permlanes="1.0" oneway="1" modes="car" />
		<link id="1098" from="892" to="837" length="267.6218059007786" freespeed="8.3333" capacity="600.0" permlanes="1.0" oneway="1" modes="car" />
		<link id="11" from="74" to="14" length="26.896622323462726" freespeed="13.88888931274414" capacity="3000.0" permlanes="1.0" oneway="1" modes="car" />
		<link id="110" from="12" to="200" length="1304.3884379295628" freespeed="8.3333" capacity="600.0" permlanes="1.0" oneway="1" modes="car" />
		<link id="1106" from="910" to="707" length="337.0736244458309" freespeed="8.3333" capacity="600.0" permlanes="1.0" oneway="1" modes="car" />
		<link id="111" from="47" to="75" length="247.2775551388088" freespeed="8.3333" capacity="600.0" permlanes="1.0" oneway="1" modes="car" />
		<link id="1119" from="767" to="1077" length="151.75384797284718" freespeed="8.3333" capacity="600.0" permlanes="1.0" oneway="1" modes="car" />
		<link id="1129" from="878" to="1083" length="56.29464586808222" freespeed="8.3333" capacity="600.0" permlanes="1.0" oneway="1" modes="car" />
		<link id="113" from="0" to="81" length="29.007317626922013" freespeed="13.88888931274414" capacity="600.0" permlanes="1.0" oneway="1" modes="car" />
		<link id="1135" from="1120" to="801" length="58.81432955335855" freespeed="8.3333" capacity="600.0" permlanes="1.0" oneway="1" modes="car" />
		<link id="114" from="194" to="83" length="229.1726618953042" freespeed="8.3333" capacity="600.0" permlanes="1.0" oneway="1" modes="car" />